k23/sourcebus_11000.trafo_75585177_75585177/Loads.dss
New Load.75588800_nmi_elem_75588800 bus1=3093838.2 kV=0.41500000000000004 Vminpu=0.7 Vmaxpu=1.3 model=1 kW=0.0 kvar=0.0 Phases=1
New Load.75588802_nmi_elem_75588802 bus1=3092186.1.2.3 kV=0.41500000000000004 Vminpu=0.7 Vmaxpu=1.3 model=1 kW=0.0 kvar=0.0 Phases=3
New Load.75588804_nmi_elem_75588804 bus1=3093840.2 kV=0.41500000000000004 Vminpu=0.7 Vmaxpu=1.3 model=1 kW=0.0 kvar=0.0 Phases=1
New Load.75588806_nmi_elem_75588806 bus1=3093842.1.2 kV=0.41500000000000004 Vminpu=0.7 Vmaxpu=1.3 model=1 kW=0.0 kvar=0.0 Phases=2
New Load.75588809_nmi_elem_75588809 bus1=3093845.2 kV=0.41500000000000004 Vminpu=0.7 Vmaxpu=1.3 model=1 kW=0.0 kvar=0.0 Phases=1
New Load.75588814_nmi_elem_75588814 bus1=3093850.1 kV=0.41500000000000004 Vminpu=0.7 Vmaxpu=1.3 model=1 kW=0.0 kvar=0.0 Phases=1
New Load.75588815_nmi_elem_75588815 bus1=3093851.2 kV=0.41500000000000004 Vminpu=0.7 Vmaxpu=1.3 model=1 kW=0.0 kvar=0.0 Phases=1
New Load.75588826_nmi_elem_75588826 bus1=3093859.2 kV=0.41500000000000004 Vminpu=0.7 Vmaxpu=1.3 model=1 kW=0.0 kvar=0.0 Phases=1
New Load.75588841_nmi_elem_75588841 bus1=3093873.3 kV=0.41500000000000004 Vminpu=0.7 Vmaxpu=1.3 model=1 kW=0.0 kvar=0.0 Phases=1
New Load.75588926_nmi_elem_75588926 bus1=3093944.2 kV=0.41500000000000004 Vminpu=0.7 Vmaxpu=1.3 model=1 kW=0.0 kvar=0.0 Phases=1
New Load.75588927_nmi_elem_75588927 bus1=3093945.2 kV=0.41500000000000004 Vminpu=0.7 Vmaxpu=1.3 model=1 kW=0.0 kvar=0.0 Phases=1
New Load.75589522_nmi_elem_75589522 bus1=3094185.3 kV=0.41500000000000004 Vminpu=0.7 Vmaxpu=1.3 model=1 kW=0.0 kvar=0.0 Phases=1
New Load.75589523_nmi_elem_75589523 bus1=3094186.2 kV=0.41500000000000004 Vminpu=0.7 Vmaxpu=1.3 model=1 kW=0.0 kvar=0.0 Phases=1
New Load.75589530_nmi_elem_75589530 bus1=3094193.2 kV=0.41500000000000004 Vminpu=0.7 Vmaxpu=1.3 model=1 kW=0.0 kvar=0.0 Phases=1
New Load.75589532_nmi_elem_75589532 bus1=3092792.1.2.3 kV=0.41500000000000004 Vminpu=0.7 Vmaxpu=1.3 model=1 kW=0.0 kvar=0.0 Phases=3
New Load.75589565_nmi_elem_75589565 bus1=3092797.1.2.3 kV=0.41500000000000004 Vminpu=0.7 Vmaxpu=1.3 model=1 kW=0.0 kvar=0.0 Phases=3
New Load.75589568_nmi_elem_75589568 bus1=3092154.1.2.3 kV=0.41500000000000004 Vminpu=0.7 Vmaxpu=1.3 model=1 kW=0.0 kvar=0.0 Phases=3
New Load.75589574_nmi_elem_75589574 bus1=3091968.1.2.3 kV=0.41500000000000004 Vminpu=0.7 Vmaxpu=1.3 model=1 kW=0.0 kvar=0.0 Phases=3
New Load.75589583_nmi_elem_75589583 bus1=3094203.3 kV=0.41500000000000004 Vminpu=0.7 Vmaxpu=1.3 model=1 kW=0.0 kvar=0.0 Phases=1
New Load.75589586_nmi_elem_75589586 bus1=3094205.1 kV=0.41500000000000004 Vminpu=0.7 Vmaxpu=1.3 model=1 kW=0.0 kvar=0.0 Phases=1
New Load.75589591_nmi_elem_75589591 bus1=3092355.1.2.3 kV=0.41500000000000004 Vminpu=0.7 Vmaxpu=1.3 model=1 kW=0.0 kvar=0.0 Phases=3
New Load.75589593_nmi_elem_75589593 bus1=3092156.1.2.3 kV=0.41500000000000004 Vminpu=0.7 Vmaxpu=1.3 model=1 kW=0.0 kvar=0.0 Phases=3
New Load.75589595_nmi_elem_75589595 bus1=3092506.1.2.3 kV=0.41500000000000004 Vminpu=0.7 Vmaxpu=1.3 model=1 kW=0.0 kvar=0.0 Phases=3
New Load.75591040_nmi_elem_75591040 bus1=3094354.3 kV=0.41500000000000004 Vminpu=0.7 Vmaxpu=1.3 model=1 kW=0.0 kvar=0.0 Phases=1
New Load.75591241_nmi_elem_75591241 bus1=3094433.3 kV=0.41500000000000004 Vminpu=0.7 Vmaxpu=1.3 model=1 kW=0.0 kvar=0.0 Phases=1
New Load.NMI_elem_75585488 bus1=3093838.2 kV=0.41500000000000004 Vminpu=0.7 Vmaxpu=1.3 model=1 kW=6.042096473799428 kvar=1.2269000173911513 Phases=1
New Load.NMI_elem_75585489 bus1=3092790.1.2.3 kV=0.41500000000000004 Vminpu=0.7 Vmaxpu=1.3 model=1 kW=7.145065099997586 kvar=1.4508673493482769 Phases=3
New Load.NMI_elem_75585490 bus1=3092186.1.2.3 kV=0.41500000000000004 Vminpu=0.7 Vmaxpu=1.3 model=1 kW=7.022943597821399 kvar=1.4260695206817677 Phases=3
New Load.NMI_elem_75585491 bus1=3093839.1 kV=0.41500000000000004 Vminpu=0.7 Vmaxpu=1.3 model=1 kW=2.4943074985535025 kvar=0.5064907398656275 Phases=1
New Load.NMI_elem_75585492 bus1=3093840.2 kV=0.41500000000000004 Vminpu=0.7 Vmaxpu=1.3 model=1 kW=3.689807673253494 kvar=0.7492474041279258 Phases=1
New Load.NMI_elem_75585493 bus1=3093841.1 kV=0.41500000000000004 Vminpu=0.7 Vmaxpu=1.3 model=1 kW=0.9944162825212126 kvar=0.20192483844140294 Phases=1
New Load.NMI_elem_75585494 bus1=3093842.1.2 kV=0.41500000000000004 Vminpu=0.7 Vmaxpu=1.3 model=1 kW=10.257219751691933 kvar=2.0828173046072167 Phases=2
New Load.NMI_elem_75585495 bus1=3093843.1 kV=0.41500000000000004 Vminpu=0.7 Vmaxpu=1.3 model=1 kW=0.6619749495358578 kvar=0.13441974662601378 Phases=1
New Load.NMI_elem_75585496 bus1=3093844.2 kV=0.41500000000000004 Vminpu=0.7 Vmaxpu=1.3 model=1 kW=5.263815639820489 kvar=1.0688633536462724 Phases=1
New Load.NMI_elem_75585497 bus1=3093845.2 kV=0.41500000000000004 Vminpu=0.7 Vmaxpu=1.3 model=1 kW=3.5570250987397154 kvar=0.722284752391623 Phases=1
New Load.NMI_elem_75585498 bus1=3093846.2 kV=0.41500000000000004 Vminpu=0.7 Vmaxpu=1.3 model=1 kW=1.3035963461862505 kvar=0.26470652806396167 Phases=1
New Load.NMI_elem_75585499 bus1=3093847.3 kV=0.41500000000000004 Vminpu=0.7 Vmaxpu=1.3 model=1 kW=5.037018934077226 kvar=1.0228103183418409 Phases=1
New Load.NMI_elem_75585500 bus1=3093848.3 kV=0.41500000000000004 Vminpu=0.7 Vmaxpu=1.3 model=1 kW=0.4972081412606063 kvar=0.10096241922070147 Phases=1
New Load.NMI_elem_75585501 bus1=3093849.1 kV=0.41500000000000004 Vminpu=0.7 Vmaxpu=1.3 model=1 kW=2.1545685196975937 kvar=0.4375037978539824 Phases=1
New Load.NMI_elem_75585502 bus1=3093850.1 kV=0.41500000000000004 Vminpu=0.7 Vmaxpu=1.3 model=1 kW=3.3612432955146083 kvar=0.6825295616522227 Phases=1
New Load.NMI_elem_75585503 bus1=3093851.2 kV=0.41500000000000004 Vminpu=0.7 Vmaxpu=1.3 model=1 kW=2.5267477196422607 kvar=0.5130780077105817 Phases=1
New Load.NMI_elem_75585504 bus1=3093852.2 kV=0.41500000000000004 Vminpu=0.7 Vmaxpu=1.3 model=1 kW=2.3387196420466916 kvar=0.47489727811243887 Phases=1
New Load.NMI_elem_75585505 bus1=3093853.2 kV=0.41500000000000004 Vminpu=0.7 Vmaxpu=1.3 model=1 kW=1.3539956552099537 kvar=0.27494054425119413 Phases=1
New Load.NMI_elem_75585506 bus1=3093854.2 kV=0.41500000000000004 Vminpu=0.7 Vmaxpu=1.3 model=1 kW=1.6932213825815292 kvar=0.34382326610386216 Phases=1
New Load.NMI_elem_75585507 bus1=3091853.1.2.3 kV=0.41500000000000004 Vminpu=0.7 Vmaxpu=1.3 model=1 kW=4.032910448303239 kvar=0.8189173940893371 Phases=3
New Load.NMI_elem_75585508 bus1=3092308.1.2.3 kV=0.41500000000000004 Vminpu=0.7 Vmaxpu=1.3 model=1 kW=4.561133584513702 kvar=0.926177676644127 Phases=3
New Load.NMI_elem_75585509 bus1=3092052.1.2.3 kV=0.41500000000000004 Vminpu=0.7 Vmaxpu=1.3 model=1 kW=6.245632187517476 kvar=1.2682297068099242 Phases=3
New Load.NMI_elem_75585510 bus1=3093855.2 kV=0.41500000000000004 Vminpu=0.7 Vmaxpu=1.3 model=1 kW=1.412148597431495 kvar=0.28674900281062693 Phases=1
New Load.NMI_elem_75585511 bus1=3093856.3 kV=0.41500000000000004 Vminpu=0.7 Vmaxpu=1.3 model=1 kW=0.8538798899461955 kvar=0.17338770679478535 Phases=1
New Load.NMI_elem_75585512 bus1=3093857.2 kV=0.41500000000000004 Vminpu=0.7 Vmaxpu=1.3 model=1 kW=2.2921972882694592 kvar=0.4654505112648927 Phases=1
New Load.NMI_elem_75585513 bus1=3093858.2 kV=0.41500000000000004 Vminpu=0.7 Vmaxpu=1.3 model=1 kW=1.1058761577696092 kvar=0.22455773142377553 Phases=1
New Load.NMI_elem_75585514 bus1=3093859.2 kV=0.41500000000000004 Vminpu=0.7 Vmaxpu=1.3 model=1 kW=1.5517158436265952 kvar=0.3150893408913803 Phases=1
New Load.NMI_elem_75585515 bus1=3092401.2.3 kV=0.41500000000000004 Vminpu=0.7 Vmaxpu=1.3 model=1 kW=1.8531422740937946 kvar=0.3762965881417386 Phases=2
New Load.NMI_elem_75585516 bus1=3093860.2 kV=0.41500000000000004 Vminpu=0.7 Vmaxpu=1.3 model=1 kW=0.9062175841614328 kvar=0.1840153288828035 Phases=1
New Load.NMI_elem_75585517 bus1=3093861.2 kV=0.41500000000000004 Vminpu=0.7 Vmaxpu=1.3 model=1 kW=0.8054190585457273 kvar=0.16354731527739597 Phases=1
New Load.NMI_elem_75585518 bus1=3093862.3 kV=0.41500000000000004 Vminpu=0.7 Vmaxpu=1.3 model=1 kW=2.3464733676762313 kvar=0.4764717392536967 Phases=1
New Load.NMI_elem_75585519 bus1=3093863.2 kV=0.41500000000000004 Vminpu=0.7 Vmaxpu=1.3 model=1 kW=2.3464733676762313 kvar=0.4764717392536967 Phases=1
New Load.NMI_elem_75585520 bus1=3093864.2 kV=0.41500000000000004 Vminpu=0.7 Vmaxpu=1.3 model=1 kW=2.82429719486299 kvar=0.5734980056212539 Phases=1
New Load.NMI_elem_75585521 bus1=3093865.3 kV=0.41500000000000004 Vminpu=0.7 Vmaxpu=1.3 model=1 kW=2.7041143551734375 kvar=0.549093839162702 Phases=1
New Load.NMI_elem_75585522 bus1=3093866.3 kV=0.41500000000000004 Vminpu=0.7 Vmaxpu=1.3 model=1 kW=2.024693476755267 kvar=0.4111315455843298 Phases=1
New Load.NMI_elem_75585523 bus1=3093867.2 kV=0.41500000000000004 Vminpu=0.7 Vmaxpu=1.3 model=1 kW=1.2134592626349365 kvar=0.24640341260457652 Phases=1
New Load.NMI_elem_75585524 bus1=3093868.2 kV=0.41500000000000004 Vminpu=0.7 Vmaxpu=1.3 model=1 kW=1.1039377725780743 kvar=0.22416412552298967 Phases=1
New Load.NMI_elem_75585525 bus1=3093869.3 kV=0.41500000000000004 Vminpu=0.7 Vmaxpu=1.3 model=1 kW=3.521164187026874 kvar=0.7150028836900992 Phases=1
New Load.NMI_elem_75585526 bus1=3093870.3 kV=0.41500000000000004 Vminpu=0.7 Vmaxpu=1.3 model=1 kW=0.9982931453359821 kvar=0.2027120690120318 Phases=1
New Load.NMI_elem_75585527 bus1=3093871.3 kV=0.41500000000000004 Vminpu=0.7 Vmaxpu=1.3 model=1 kW=1.692252143769912 kvar=0.3436264537689406 Phases=1
New Load.NMI_elem_75585528 bus1=3093872.2 kV=0.41500000000000004 Vminpu=0.7 Vmaxpu=1.3 model=1 kW=1.544931264376973 kvar=0.3137116733159868 Phases=1
New Load.NMI_elem_75585529 bus1=3093873.3 kV=0.41500000000000004 Vminpu=0.7 Vmaxpu=1.3 model=1 kW=2.738036974126445 kvar=0.5559821207324974 Phases=1
New Load.NMI_elem_75585530 bus1=3093874.3 kV=0.41500000000000004 Vminpu=0.7 Vmaxpu=1.3 model=1 kW=1.1019992949548396 kvar=0.22377050085314665 Phases=1
New Load.NMI_elem_75585531 bus1=3093875.3 kV=0.41500000000000004 Vminpu=0.7 Vmaxpu=1.3 model=1 kW=0.41773236112613266 kvar=0.08482417375375265 Phases=1
New Load.NMI_elem_75585532 bus1=3093876.3 kV=0.41500000000000004 Vminpu=0.7 Vmaxpu=1.3 model=1 kW=3.3447664205805117 kvar=0.679183789496671 Phases=1
New Load.NMI_elem_75585533 bus1=3093877.2 kV=0.41500000000000004 Vminpu=0.7 Vmaxpu=1.3 model=1 kW=1.9326180080124182 kvar=0.39243482422415876 Phases=1
New Load.NMI_elem_75585534 bus1=3093878.3 kV=0.41500000000000004 Vminpu=0.7 Vmaxpu=1.3 model=1 kW=3.0375249269704105 kvar=0.6167957433130129 Phases=1
New Load.NMI_elem_75585535 bus1=3093879.3 kV=0.41500000000000004 Vminpu=0.7 Vmaxpu=1.3 model=1 kW=1.7048520634575381 kvar=0.34618497658480596 Phases=1
New Load.NMI_elem_75585536 bus1=3093880.2 kV=0.41500000000000004 Vminpu=0.7 Vmaxpu=1.3 model=1 kW=3.6510388602423984 kvar=0.7413750608835226 Phases=1
New Load.NMI_elem_75585537 bus1=3092091.2.3 kV=0.41500000000000004 Vminpu=0.7 Vmaxpu=1.3 model=1 kW=2.9803411311287853 kvar=0.6051840783194441 Phases=2
New Load.NMI_elem_75585602 bus1=3092872.2.3 kV=0.41500000000000004 Vminpu=0.7 Vmaxpu=1.3 model=1 kW=2.5926544799250406 kvar=0.5264609461803295 Phases=2
New Load.NMI_elem_75585603 bus1=3093935.2 kV=0.41500000000000004 Vminpu=0.7 Vmaxpu=1.3 model=1 kW=4.405089648247905 kvar=0.8944916039459364 Phases=1
New Load.NMI_elem_75585604 bus1=3091851.2.3 kV=0.41500000000000004 Vminpu=0.7 Vmaxpu=1.3 model=1 kW=1.0593538039923758 kvar=0.21511096457622922 Phases=2
New Load.NMI_elem_75585605 bus1=3092278.2.3 kV=0.41500000000000004 Vminpu=0.7 Vmaxpu=1.3 model=1 kW=2.4943074985535025 kvar=0.5064907398656275 Phases=2
New Load.NMI_elem_75585606 bus1=3093936.2 kV=0.41500000000000004 Vminpu=0.7 Vmaxpu=1.3 model=1 kW=1.467394008081585 kvar=0.29796706190340977 Phases=1
New Load.NMI_elem_75585607 bus1=3093937.2 kV=0.41500000000000004 Vminpu=0.7 Vmaxpu=1.3 model=1 kW=2.067339060149431 kvar=0.41979110063030445 Phases=1
New Load.NMI_elem_75585608 bus1=3093938.3 kV=0.41500000000000004 Vminpu=0.7 Vmaxpu=1.3 model=1 kW=0.6377445338356236 kvar=0.12949955086731907 Phases=1
New Load.NMI_elem_75585609 bus1=3093939.3 kV=0.41500000000000004 Vminpu=0.7 Vmaxpu=1.3 model=1 kW=2.909588361651318 kvar=0.5908171157132032 Phases=1
New Load.NMI_elem_75585610 bus1=3093940.1 kV=0.41500000000000004 Vminpu=0.7 Vmaxpu=1.3 model=1 kW=0.826741757811109 kvar=0.16787707403132604 Phases=1
New Load.NMI_elem_75585611 bus1=3093941.2 kV=0.41500000000000004 Vminpu=0.7 Vmaxpu=1.3 model=1 kW=1.918079795564958 kvar=0.38948271427656495 Phases=1
New Load.NMI_elem_75585612 bus1=3093942.1 kV=0.41500000000000004 Vminpu=0.7 Vmaxpu=1.3 model=1 kW=2.0925387146612824 kvar=0.42490810872392065 Phases=1
New Load.NMI_elem_75585613 bus1=3093943.1 kV=0.41500000000000004 Vminpu=0.7 Vmaxpu=1.3 model=1 kW=2.425949286458255 kvar=0.4926100128742314 Phases=1
New Load.NMI_elem_75585614 bus1=3093944.2 kV=0.41500000000000004 Vminpu=0.7 Vmaxpu=1.3 model=1 kW=4.573733134474526 kvar=0.928736124383763 Phases=1
New Load.NMI_elem_75585615 bus1=3093945.2 kV=0.41500000000000004 Vminpu=0.7 Vmaxpu=1.3 model=1 kW=6.019804535722431 kvar=1.2223734463023 Phases=1
New Load.NMI_elem_75585616 bus1=3093946.2 kV=0.41500000000000004 Vminpu=0.7 Vmaxpu=1.3 model=1 kW=1.707759779892391 kvar=0.3467754135895707 Phases=1
New Load.NMI_elem_75585617 bus1=3093947.1 kV=0.41500000000000004 Vminpu=0.7 Vmaxpu=1.3 model=1 kW=2.4627794369827147 kvar=0.5000886939106769 Phases=1
New Load.NMI_elem_75585618 bus1=3093948.1 kV=0.41500000000000004 Vminpu=0.7 Vmaxpu=1.3 model=1 kW=7.089819781779198 kvar=1.4396493090245517 Phases=1
New Load.NMI_elem_75585619 bus1=3093949.1 kV=0.41500000000000004 Vminpu=0.7 Vmaxpu=1.3 model=1 kW=1.6932213825815292 kvar=0.34382326610386216 Phases=1
New Load.NMI_elem_75586209 bus1=3094184.3 kV=0.41500000000000004 Vminpu=0.7 Vmaxpu=1.3 model=1 kW=1.3927642833576477 kvar=0.2828128499574826 Phases=1
New Load.NMI_elem_75586210 bus1=3094185.3 kV=0.41500000000000004 Vminpu=0.7 Vmaxpu=1.3 model=1 kW=2.4943074985535025 kvar=0.5064907398656275 Phases=1
New Load.NMI_elem_75586211 bus1=3094186.2 kV=0.41500000000000004 Vminpu=0.7 Vmaxpu=1.3 model=1 kW=4.002864599733301 kvar=0.8128163243211133 Phases=1
New Load.NMI_elem_75586212 bus1=3094187.1 kV=0.41500000000000004 Vminpu=0.7 Vmaxpu=1.3 model=1 kW=4.956573776483584 kvar=1.0064752323863846 Phases=1
New Load.NMI_elem_75586213 bus1=3094188.1 kV=0.41500000000000004 Vminpu=0.7 Vmaxpu=1.3 model=1 kW=2.395903437888317 kvar=0.48650894310600756 Phases=1
New Load.NMI_elem_75586214 bus1=3094189.3 kV=0.41500000000000004 Vminpu=0.7 Vmaxpu=1.3 model=1 kW=1.4993781494113576 kvar=0.3044617188033621 Phases=1
New Load.NMI_elem_75586215 bus1=3094190.2 kV=0.41500000000000004 Vminpu=0.7 Vmaxpu=1.3 model=1 kW=1.349149553583567 kvar=0.2739565013456437 Phases=1
New Load.NMI_elem_75586216 bus1=3094191.1 kV=0.41500000000000004 Vminpu=0.7 Vmaxpu=1.3 model=1 kW=3.2013224040023425 kvar=0.6500562396143461 Phases=1
New Load.NMI_elem_75586217 bus1=3094192.2 kV=0.41500000000000004 Vminpu=0.7 Vmaxpu=1.3 model=1 kW=1.5129471230472005 kvar=0.30721701641603444 Phases=1
New Load.NMI_elem_75586218 bus1=3094193.2 kV=0.41500000000000004 Vminpu=0.7 Vmaxpu=1.3 model=1 kW=2.4943074985535025 kvar=0.5064907398656275 Phases=1
New Load.NMI_elem_75586219 bus1=3092532.1.2.3 kV=0.41500000000000004 Vminpu=0.7 Vmaxpu=1.3 model=1 kW=2.4943074985535025 kvar=0.5064907398656275 Phases=3
New Load.NMI_elem_75586220 bus1=3092792.1.2.3 kV=0.41500000000000004 Vminpu=0.7 Vmaxpu=1.3 model=1 kW=2.4943074985535025 kvar=0.5064907398656275 Phases=3
New Load.NMI_elem_75586221 bus1=3092455.1.2.3 kV=0.41500000000000004 Vminpu=0.7 Vmaxpu=1.3 model=1 kW=3.6083934617116347 kvar=0.7327155433756624 Phases=3
New Load.NMI_elem_75586222 bus1=3092634.1.2.3 kV=0.41500000000000004 Vminpu=0.7 Vmaxpu=1.3 model=1 kW=1.7426514527936157 kvar=0.3538604699561731 Phases=3
New Load.NMI_elem_75586223 bus1=3092831.1.2.3 kV=0.41500000000000004 Vminpu=0.7 Vmaxpu=1.3 model=1 kW=1.8618650536715504 kvar=0.3780678240798033 Phases=3
New Load.NMI_elem_75586224 bus1=3091854.1.2.3 kV=0.41500000000000004 Vminpu=0.7 Vmaxpu=1.3 model=1 kW=1.4189331766811168 kvar=0.28812667038602036 Phases=3
New Load.NMI_elem_75586225 bus1=3092705.1.2.3 kV=0.41500000000000004 Vminpu=0.7 Vmaxpu=1.3 model=1 kW=1.1019992949548396 kvar=0.22377050085314665 Phases=3
New Load.NMI_elem_75586226 bus1=3091855.1.2.3 kV=0.41500000000000004 Vminpu=0.7 Vmaxpu=1.3 model=1 kW=1.0225235610362162 kvar=0.20763226477072647 Phases=3
New Load.NMI_elem_75586250 bus1=3092069.1.2.3 kV=0.41500000000000004 Vminpu=0.7 Vmaxpu=1.3 model=1 kW=0.2413349412986479 kvar=0.04900514994428947 Phases=3
New Load.NMI_elem_75586251 bus1=3091969.1.2.3 kV=0.41500000000000004 Vminpu=0.7 Vmaxpu=1.3 model=1 kW=1.7387746824105463 kvar=0.35307325815460155 Phases=3
New Load.NMI_elem_75586252 bus1=3092468.1.2.3 kV=0.41500000000000004 Vminpu=0.7 Vmaxpu=1.3 model=1 kW=1.3317036247012541 kvar=0.27041395439328525 Phases=3
New Load.NMI_elem_75586253 bus1=3092797.1.2.3 kV=0.41500000000000004 Vminpu=0.7 Vmaxpu=1.3 model=1 kW=2.1041692106738905 kvar=0.42726978166674995 Phases=3
New Load.NMI_elem_75586254 bus1=3091967.1.2.3 kV=0.41500000000000004 Vminpu=0.7 Vmaxpu=1.3 model=1 kW=0.23939650989126318 kvar=0.04861153465897503 Phases=3
New Load.NMI_elem_75586255 bus1=3094194.2 kV=0.41500000000000004 Vminpu=0.7 Vmaxpu=1.3 model=1 kW=5.055433916907755 kvar=1.0265496400910064 Phases=1
New Load.NMI_elem_75586256 bus1=3092154.1.2.3 kV=0.41500000000000004 Vminpu=0.7 Vmaxpu=1.3 model=1 kW=5.677671184347703 kvar=1.1529003062139247 Phases=3
New Load.NMI_elem_75586257 bus1=3094195.1 kV=0.41500000000000004 Vminpu=0.7 Vmaxpu=1.3 model=1 kW=4.109478650650412 kvar=0.8344652307051074 Phases=1
New Load.NMI_elem_75586258 bus1=3092621.1.2.3 kV=0.41500000000000004 Vminpu=0.7 Vmaxpu=1.3 model=1 kW=3.163523014666266 kvar=0.6423807462429793 Phases=3
New Load.NMI_elem_75586259 bus1=3092157.1.2.3 kV=0.41500000000000004 Vminpu=0.7 Vmaxpu=1.3 model=1 kW=1.4518864643908067 kvar=0.294818120851837 Phases=3
New Load.NMI_elem_75586260 bus1=3092067.1.2.3 kV=0.41500000000000004 Vminpu=0.7 Vmaxpu=1.3 model=1 kW=1.2599816164121695 kvar=0.25585017945212274 Phases=3
New Load.NMI_elem_75586262 bus1=3091968.1.2.3 kV=0.41500000000000004 Vminpu=0.7 Vmaxpu=1.3 model=1 kW=2.4943074985535025 kvar=0.5064907398656275 Phases=3
New Load.NMI_elem_75586263 bus1=3092528.1.2.3 kV=0.41500000000000004 Vminpu=0.7 Vmaxpu=1.3 model=1 kW=12.782029363437763 kvar=2.595501762724185 Phases=3
New Load.NMI_elem_75586264 bus1=3094196.1 kV=0.41500000000000004 Vminpu=0.7 Vmaxpu=1.3 model=1 kW=1.98689408741919 kvar=0.4034560522129627 Phases=1
New Load.NMI_elem_75586265 bus1=3094197.3 kV=0.41500000000000004 Vminpu=0.7 Vmaxpu=1.3 model=1 kW=1.5846692237679856 kvar=0.3217808101262542 Phases=1
New Load.NMI_elem_75586266 bus1=3094198.3 kV=0.41500000000000004 Vminpu=0.7 Vmaxpu=1.3 model=1 kW=3.425211578174155 kvar=0.6955188754521275 Phases=1
New Load.NMI_elem_75586267 bus1=3094199.2 kV=0.41500000000000004 Vminpu=0.7 Vmaxpu=1.3 model=1 kW=2.4443642692887844 kvar=0.49634933462339687 Phases=1
New Load.NMI_elem_75586268 bus1=3094200.2 kV=0.41500000000000004 Vminpu=0.7 Vmaxpu=1.3 model=1 kW=2.0789697410254404 kvar=0.4221528111112484 Phases=1
New Load.NMI_elem_75586269 bus1=3094201.1 kV=0.41500000000000004 Vminpu=0.7 Vmaxpu=1.3 model=1 kW=2.3629500577469256 kvar=0.4798174738711336 Phases=1
New Load.NMI_elem_75586270 bus1=3094202.1 kV=0.41500000000000004 Vminpu=0.7 Vmaxpu=1.3 model=1 kW=2.1379778559030025 kvar=0.4341349198848236 Phases=1
New Load.NMI_elem_75586271 bus1=3094203.3 kV=0.41500000000000004 Vminpu=0.7 Vmaxpu=1.3 model=1 kW=3.027832723717636 kvar=0.614827657501912 Phases=1
New Load.NMI_elem_75586273 bus1=3094204.3 kV=0.41500000000000004 Vminpu=0.7 Vmaxpu=1.3 model=1 kW=6.435598557872879 kvar=1.3068040235397955 Phases=1
New Load.NMI_elem_75586274 bus1=3094205.1 kV=0.41500000000000004 Vminpu=0.7 Vmaxpu=1.3 model=1 kW=2.4943074985535025 kvar=0.5064907398656275 Phases=1
New Load.NMI_elem_75586275 bus1=3094206.2 kV=0.41500000000000004 Vminpu=0.7 Vmaxpu=1.3 model=1 kW=6.75834787246886 kvar=1.3723410670821985 Phases=1
New Load.NMI_elem_75586276 bus1=3094207.1 kV=0.41500000000000004 Vminpu=0.7 Vmaxpu=1.3 model=1 kW=3.1460770857839537 kvar=0.6388381992906208 Phases=1
New Load.NMI_elem_75586277 bus1=3094208.1 kV=0.41500000000000004 Vminpu=0.7 Vmaxpu=1.3 model=1 kW=1.6079304006566022 kvar=0.3265041935500273 Phases=1
New Load.NMI_elem_75586278 bus1=3092732.1.2.3 kV=0.41500000000000004 Vminpu=0.7 Vmaxpu=1.3 model=1 kW=1.7998352486352396 kvar=0.3654721349497417 Phases=3
New Load.NMI_elem_75586279 bus1=3092355.1.2.3 kV=0.41500000000000004 Vminpu=0.7 Vmaxpu=1.3 model=1 kW=3.8836509988553662 kvar=0.7886089701974831 Phases=3
New Load.NMI_elem_75586280 bus1=3094209.1 kV=0.41500000000000004 Vminpu=0.7 Vmaxpu=1.3 model=1 kW=1.2115207850117016 kvar=0.24600978793473344 Phases=1
New Load.NMI_elem_75586281 bus1=3092156.1.2.3 kV=0.41500000000000004 Vminpu=0.7 Vmaxpu=1.3 model=1 kW=4.318829427511362 kvar=0.8769757190571802 Phases=3
New Load.NMI_elem_75586282 bus1=3092863.1.2.3 kV=0.41500000000000004 Vminpu=0.7 Vmaxpu=1.3 model=1 kW=2.6944221519206635 kvar=0.5471257533516013 Phases=3
New Load.NMI_elem_75586283 bus1=3092506.1.2.3 kV=0.41500000000000004 Vminpu=0.7 Vmaxpu=1.3 model=1 kW=1.9568484237126522 kvar=0.39735501998285344 Phases=3
New Load.NMI_elem_75586284 bus1=3092775.1.2.3 kV=0.41500000000000004 Vminpu=0.7 Vmaxpu=1.3 model=1 kW=0.9478938363122789 kvar=0.19247805282479938 Phases=3
New Load.NMI_elem_75586285 bus1=3092068.1.2.3 kV=0.41500000000000004 Vminpu=0.7 Vmaxpu=1.3 model=1 kW=3.4736724095746223 kvar=0.7053592669695168 Phases=3
New Load.NMI_elem_75586286 bus1=3092766.1.2.3 kV=0.41500000000000004 Vminpu=0.7 Vmaxpu=1.3 model=1 kW=1.6641449576866094 kvar=0.33791904620867447 Phases=3
New Load.NMI_elem_75586297 bus1=3094210.1 kV=0.41500000000000004 Vminpu=0.7 Vmaxpu=1.3 model=1 kW=3.3980736309024686 kvar=0.6900082802267827 Phases=1
New Load.NMI_elem_75587536 bus1=3094287.3 kV=0.41500000000000004 Vminpu=0.7 Vmaxpu=1.3 model=1 kW=1.7319901955926247 kvar=0.3516956093482653 Phases=1
New Load.NMI_elem_75587556 bus1=3092445.1.2.3 kV=0.41500000000000004 Vminpu=0.7 Vmaxpu=1.3 model=1 kW=4.493288346607685 kvar=0.9124011135045358 Phases=3
New Load.NMI_elem_75587608 bus1=3094301.1 kV=0.41500000000000004 Vminpu=0.7 Vmaxpu=1.3 model=1 kW=3.9505268130863636 kvar=0.8021886834640379 Phases=1
New Load.NMI_elem_75587663 bus1=3094318.2 kV=0.41500000000000004 Vminpu=0.7 Vmaxpu=1.3 model=1 kW=3.7285764862645894 kvar=0.7571197473723289 Phases=1
New Load.NMI_elem_75587679 bus1=3094329.3 kV=0.41500000000000004 Vminpu=0.7 Vmaxpu=1.3 model=1 kW=0.6968667610846327 kvar=0.1415048311462021 Phases=1
New Load.NMI_elem_75587680 bus1=3094330.3 kV=0.41500000000000004 Vminpu=0.7 Vmaxpu=1.3 model=1 kW=0.3120877569919653 kvar=0.06337212193505903 Phases=1
New Load.NMI_elem_75587715 bus1=3094346.3 kV=0.41500000000000004 Vminpu=0.7 Vmaxpu=1.3 model=1 kW=1.7581589040526928 kvar=0.3570093922386885 Phases=1
New Load.NMI_elem_75587721 bus1=3094348.3 kV=0.41500000000000004 Vminpu=0.7 Vmaxpu=1.3 model=1 kW=1.8773726897940288 kvar=0.38121678390043334 Phases=1
New Load.NMI_elem_75587728 bus1=3094354.3 kV=0.41500000000000004 Vminpu=0.7 Vmaxpu=1.3 model=1 kW=3.134446589771345 kvar=0.6364765263477914 Phases=1
New Load.NMI_elem_75587740 bus1=3094360.1 kV=0.41500000000000004 Vminpu=0.7 Vmaxpu=1.3 model=1 kW=0.7918499924781842 kvar=0.16079199889566637 Phases=1
New Load.NMI_elem_75587929 bus1=3094433.3 kV=0.41500000000000004 Vminpu=0.7 Vmaxpu=1.3 model=1 kW=4.6919776814042455 kvar=0.9527467037105865 Phases=1
New Load.NMI_elem_75587990 bus1=3094449.3 kV=0.41500000000000004 Vminpu=0.7 Vmaxpu=1.3 model=1 kW=1.1979517189441584 kvar=0.24325447155300378 Phases=1
New Load.NMI_elem_75587991 bus1=3094450.3 kV=0.41500000000000004 Vminpu=0.7 Vmaxpu=1.3 model=1 kW=1.1368910602877642 kvar=0.2308555759888063 Phases=1
New Load.NMI_elem_75588060 bus1=3094470.2 kV=0.41500000000000004 Vminpu=0.7 Vmaxpu=1.3 model=1 kW=2.2253212891750604 kvar=0.4518707604602233 Phases=1
New Load.NMI_elem_75588131 bus1=3094485.3 kV=0.41500000000000004 Vminpu=0.7 Vmaxpu=1.3 model=1 kW=1.1436756395373862 kvar=0.2322332435641998 Phases=1
New Load.NMI_elem_75588283 bus1=3094529.2 kV=0.41500000000000004 Vminpu=0.7 Vmaxpu=1.3 model=1 kW=1.1262297106550734 kvar=0.22869069661184127 Phases=1
New Load.NMI_elem_75588434 bus1=3094564.1 kV=0.41500000000000004 Vminpu=0.7 Vmaxpu=1.3 model=1 kW=2.1379778559030025 kvar=0.4341349198848236 Phases=1
New Load.NMI_elem_75588445 bus1=3094567.2 kV=0.41500000000000004 Vminpu=0.7 Vmaxpu=1.3 model=1 kW=2.1379778559030025 kvar=0.4341349198848236 Phases=1
New Load.NMI_elem_75588466 bus1=3094577.1 kV=0.41500000000000004 Vminpu=0.7 Vmaxpu=1.3 model=1 kW=2.1379778559030025 kvar=0.4341349198848236 Phases=1
New Load.NMI_elem_75588472 bus1=3094579.2 kV=0.41500000000000004 Vminpu=0.7 Vmaxpu=1.3 model=1 kW=2.1379778559030025 kvar=0.4341349198848236 Phases=1
New Load.NMI_elem_75588486 bus1=3094582.3 kV=0.41500000000000004 Vminpu=0.7 Vmaxpu=1.3 model=1 kW=2.1379778559030025 kvar=0.4341349198848236 Phases=1
